; Filename: C:\Users\RI\Downloads\EPANET-dev\example-networks\N6.inp
; WNTR: 0.5.0
; Created: 2023-03-10 11:42:28
[TITLE]

[JUNCTIONS]
;ID                      Elevation       Demand Pattern                 
 24                                 0               0                            ;
 25                                 0               0                            ;
 26                                 0               0                            ;
 29                                 0               0                            ;
 30                                 0               0                            ;
 31                                 0               0                            ;
 VistaHermosa                       0               0                            ;
 VillaFlorida                       0               0                            ;
 32                                 0               0                            ;
 VillasDelRoble                     0               0                            ;
 GranjasNorte                       0               0                            ;
 33                                 0               0                            ;
 34                                 0               0                            ;
 LomaReal                           0               0                            ;
 Fresnos                            0               0                            ;
 35                                 0               0                            ;
 36                                 0               0                            ;
 LomaBonita                         0               0                            ;
 Ventura                            0               0                            ;
 ColinasDeLomaReal                  0               0                            ;
 37                                 0               0                            ;
 Halcones                           0               0                            ;
 Arcos                              0               0                            ;
 40                                 0               0                            ;
 JarachinaSur                       0               0                            ;
 42                                 0               0                            ;
 43                                 0               0                            ;
 44                                 0               0                            ;
 Bugambilias                        0               0                            ;
 45                                 0               0                            ;
 46                                 0               0                            ;
 NuevoMexico                        0               0                            ;
 47                                10               0                            ;
 PuertaSur                         10               0                            ;
 MexicoItavu                       10               0                            ;
 AmpSanValentin                     0               0                            ;
 48                                 0               0                            ;
 SanValentin                        0               0                            ;
 49                                 0               0                            ;
 PuertaDelSol                       0               0                            ;
 50                                 0               0                            ;
 VistaAlta                          0               0                            ;
 HcdDelSol                          0               0                            ;
 1                                  0               0                            ;
 2                                  0               0                            ;
 4                                  0               0                            ;
 5                                  0               0                            ;
 6                                  0               0                            ;
 7                                  0               0                            ;
 3                                  0          1766.3                            ;

[RESERVOIRS]
;ID                                   Head                  Pattern
 PozoVillasDelRoble                 0                            ;
 PozoFresnos                        0                            ;
 PozoNuevoMexico1                   0                            ;
 PozoNuevoMexico2                   0                            ;
 PozoPuertaSur                      0                            ;
 PozoAmpSanValentin                 0                            ;
 PozoSanValentin                    0                            ;
 PozoPuertaDelSol                   0                            ;
 PozoHcdDelSol                      0                            ;
 Anzalduzas                         0                            ;

[TANKS]
;ID                              Elevation           Init Level            Min Level            Max Level             Diameter           Min Volume Volume Curve         Overflow            
 RebombeoPastorLozano3               0              10               0              20           10000               0                                             ;
 RebombeoJarachina1                 0              10               0              20              50               0                                             ;
 RebombeoPastorLozano4               0              10               0              20           10000               0                                             ;
 RebombeoGranjas3                   0              10               0              20              50               0                                             ;
 RebombeoGranjas2                   0              10               0              20              50               0                                             ;
 RebombeoGranjas1                   0              10               0              20              50               0                                             ;
 Jarachina2                         0              10               0              20              50               0                                             ;
 CisternaVistaHermosa               0              10               0              20              50               0                                             ;
 CisternaVillaFlorida2               0              10               0              20              50               0                                             ;
 CisternaVillaFlorida1               0              10               0              20              50               0                                             ;
 TanqueElevadoVistaHermosa               0              10               0              20              50               0                                             ;
 TanqueElevadoVillaFlorida               0              10               0              20              50               0                                             ;
 CisternaLomaReal                   0              10               0              20              50               0                                             ;
 CisternaFresnos                    0              10               0              20              50               0                                             ;
 CisternaLomaBonita                 0              10               0              20              50               0                                             ;
 TanqueElevadoLomaBonita               0              10               0              20              50               0                                             ;
 CisternaVentura                    0              10               0              20              50               0                                             ;
 CisternaColinasDeLomaReal               0              10               0              20              50               0                                             ;
 TanqueElevadoColinasDeLomaReal               0              10               0              20              50               0                                             ;
 TanqueElevadoBugambilias1              10              20               0              20              50               0                                             ;
 CisternaBugambilias1              10              10               0              10              50               0                                             ;
 CisternaBugambilias2              10              10               0              10              50               0                                             ;
 TanqueElevadoBugambilias2              10              20               0              20              50               0                                             ;
 CisternaBugambilias3              10              10               0              10              50               0                                             ;
 TanqueElevadoBugambilias3              10              20               0              20              50               0                                             ;
 CisternaHalcones                   0              10               0              20              50               0                                             ;
 RebombeoNuevoMexico                0              10               0              20              50               0                                             ;
 CisertaPuertaSur                   0              10               0              20              50               0                                             ;
 TanqueElevadoPuertaSur               0              10               0              20              50               0                                             ;
 CisternaMexicoItavu                0              10               0              20              50               0                                             ;
 TanqueElevadoMexicoItavu               0              10               0              20              50               0                                             ;
 RebombeoAmpSanValentin               0              10               0              20              50               0                                             ;
 CisternaSanValentin                0              10               0              20              50               0                                             ;
 CisternaPuertaDelSol2               0              10               0              20              50               0                                             ;
 CisternaPuertaDelSol1               0              10               0              20              50               0                                             ;
 TanqueElevadoPuertaDelSol1               0              10               0              20              50               0                                             ;
 TanqueElevadoPuertaDelSol2               0              10               0              20              50               0                                             ;
 CistermaVistaAlta                  0              10               0              20              50               0                                             ;
 CisternaHcdDelSol                  0              10               0              20              50               0                                             ;

[PIPES]
;ID                   Node1                Node2                              Length             Diameter            Roughness           Minor Loss               Status
 1                    1                    RebombeoJarachina1              1000             100           1e-09               0                 Open   ;
 2                    2                    24                              1000             100           1e-09               0                 Open   ;
 3                    24                   Jarachina2                      1000             100           1e-09               0                 Open   ;
 4                    Jarachina2           RebombeoJarachina1              1000             100           1e-09               0                 Open   ;
 6                    25                   2                               1000             100           1e-09               0                 Open   ;
 7                    25                   RebombeoJarachina1              1000             100           1e-09               0                 Open   ;
 14                   29                   RebombeoGranjas1                1000             100           1e-09               0                 Open   ;
 15                   26                   32                              1000             100           1e-09               0                 Open   ;
 16                   26                   30                              1000             100           1e-09               0                 Open   ;
 17                   30                   31                              1000             100           1e-09               0                 Open   ;
 18                   31                   CisternaVillaFlorida2            1000             100           1e-09               0                 Open   ;
 19                   31                   CisternaVillaFlorida1            1000             100           1e-09               0                 Open   ;
 20                   30                   CisternaVistaHermosa            1000             100           1e-09               0                 Open   ;
 21                   CisternaVillaFlorida1 CisternaVillaFlorida2            1000             100           1e-09               0                 Open   ;
 22                   TanqueElevadoVistaHermosa VistaHermosa                    1000             100           1e-09               0                 Open   ;
 23                   TanqueElevadoVillaFlorida VillaFlorida                    1000             100           1e-09               0                 Open   ;
 24                   VistaHermosa         VillaFlorida                    1000              50           1e-09               0                 Open   ;
 25                   25                   RebombeoGranjas3                1000             100           1e-09               0                 Open   ;
 26                   24                   RebombeoGranjas3                1000             100           1e-09               0                 Open   ;
 27                   29                   RebombeoGranjas2                1000             100           1e-09               0                 Open   ;
 28                   29                   32                              1000             100           1e-09               0                 Open   ;
 29                   VillasDelRoble       32                              1000             100           1e-09               0                 Open   ;
 30                   32                   GranjasNorte                    1000             100           1e-09               0                 Open   ;
 31                   VillasDelRoble       GranjasNorte                    1000              50           1e-09               0               Closed   ;
 32                   VillasDelRoble       VillaFlorida                    1000              50           1e-09               0               Closed   ;
 33                   4                    33                              1000             100           1e-09               0                 Open   ;
 34                   33                   34                              1000             100           1e-09               0                 Open   ;
 35                   33                   CisternaLomaReal                1000             100           1e-09               0                 Open   ;
 36                   34                   CisternaFresnos                 1000             100           1e-09               0                 Open   ;
 40                   36                   5                               1000             100           1e-09               0                 Open   ;
 41                   36                   35                              1000             100           1e-09               0                 Open   ;
 42                   36                   CisternaLomaBonita              1000             100           1e-09               0                 Open   ;
 44                   TanqueElevadoLomaBonita LomaBonita                      1000             100           1e-09               0                 Open   ;
 45                   35                   CisternaVentura                 1000             100           1e-09               0                 Open   ;
 47                   Ventura              CisternaColinasDeLomaReal            1000              50           1e-09               0                 Open   ;
 49                   TanqueElevadoColinasDeLomaReal ColinasDeLomaReal               1000             100           1e-09               0                 Open   ;
 50                   ColinasDeLomaReal    LomaReal                        1000              50           1e-09               0                 Open   ;
 51                   6                    37                              1000             100           1e-09               0                 Open   ;
 52                   JarachinaSur         7                               1000             100           1e-09               0                 Open   ;
 54                   48                   Arcos                           1000             100           1e-09               0                 Open   ;
 57                   40                   42                              1000             100           1e-09               0                 Open   ;
 58                   42                   43                              1000             100           1e-09               0                 Open   ;
 59                   43                   44                              1000             100           1e-09               0                 Open   ;
 60                   42                   CisternaBugambilias1            1000             100           1e-09               0                 Open   ;
 61                   TanqueElevadoBugambilias1 Bugambilias                     1000             100           1e-09               0                 Open   ;
 62                   43                   CisternaBugambilias2            1000             100           1e-09               0                 Open   ;
 64                   44                   CisternaBugambilias3            1000             100           1e-09               0                 Open   ;
 66                   Bugambilias          TanqueElevadoBugambilias3            1000             100           1e-09               0                 Open   ;
 67                   TanqueElevadoBugambilias2 Bugambilias                     1000             100           1e-09               0                 Open   ;
 69                   37                   45                              1000             100           1e-09               0                 Open   ;
 70                   45                   CisternaHalcones                1000             100           1e-09               0                 Open   ;
 72                   Halcones             JarachinaSur                    1000              50           1e-09               0                 Open   ;
 73                   45                   RebombeoNuevoMexico             1000             100           1e-09               0                 Open   ;
 76                   RebombeoNuevoMexico  46                              1000             100           1e-09               0                 Open   ;
 77                   46                   NuevoMexico                     1000             100           1e-09               0                 Open   ;
 78                   46                   47                              1000             100           1e-09               0                 Open   ;
 81                   TanqueElevadoPuertaSur PuertaSur                       1000             100           1e-09               0                 Open   ;
 82                   47                   CisertaPuertaSur                1000             100           1e-09               0                 Open   ;
 83                   47                   CisternaMexicoItavu             1000             100           1e-09               0                 Open   ;
 85                   TanqueElevadoMexicoItavu MexicoItavu                     1000             100           1e-09               0                 Open   ;
 86                   46                   RebombeoAmpSanValentin            1000             100           1e-09               0                 Open   ;
 89                   40                   48                              1000             100           1e-09               0                 Open   ;
 90                   48                   CisternaSanValentin             1000             100           1e-09               0                 Open   ;
 92                   CisternaSanValentin  SanValentin                     1000             100           1e-09               0                 Open   ;
 93                   7                    49                              1000             100           1e-09               0                 Open   ;
 94                   49                   CisternaPuertaDelSol2            1000             100           1e-09               0                 Open   ;
 95                   49                   CisternaPuertaDelSol1            1000             100           1e-09               0                 Open   ;
 99                   TanqueElevadoPuertaDelSol1 PuertaDelSol                    1000             100           1e-09               0                 Open   ;
 100                  TanqueElevadoPuertaDelSol2 PuertaDelSol                    1000             100           1e-09               0                 Open   ;
 101                  37                   50                              1000             100           1e-09               0                 Open   ;
 102                  50                   40                              1000             100           1e-09               0                 Open   ;
 103                  50                   CistermaVistaAlta               1000             100           1e-09               0                 Open   ;
 5                    3                    RebombeoPastorLozano3            1000             100           1e-09               0                 Open   ;
 8                    3                    RebombeoPastorLozano4            1000             100           1e-09               0                 Open   ;

[PUMPS]
;ID                   Node1                Node2                Properties          
 10                   CisternaVillaFlorida2 TanqueElevadoVillaFlorida HEAD     1                      ;
 11                   CisternaVistaHermosa TanqueElevadoVistaHermosa HEAD     1                      ;
 PozoVillasDelRoble   PozoVillasDelRoble   VillasDelRoble       HEAD     PozoVillasDelRoble     ;
 13                   CisternaLomaReal     LomaReal             HEAD     1                      ;
 PozoFresnos          PozoFresnos          CisternaFresnos      HEAD     PozoFresnos            ;
 39                   CisternaFresnos      Fresnos              HEAD     1                      ;
 43                   CisternaLomaBonita   TanqueElevadoLomaBonita HEAD     1                      ;
 46                   CisternaVentura      Ventura              HEAD     1                      ;
 48                   CisternaColinasDeLomaReal TanqueElevadoColinasDeLomaReal HEAD     1                      ;
 53                   CisternaBugambilias1 TanqueElevadoBugambilias1 HEAD     1                      ;
 63                   CisternaBugambilias2 TanqueElevadoBugambilias2 HEAD     1                      ;
 65                   CisternaBugambilias3 TanqueElevadoBugambilias3 HEAD     1                      ;
 71                   CisternaHalcones     Halcones             HEAD     1                      ;
 PozoNuevoMexico1     PozoNuevoMexico1     RebombeoNuevoMexico  HEAD     PozoNuevoMexico1       ;
 PozoNuevoMexico2     PozoNuevoMexico2     RebombeoNuevoMexico  HEAD     PozoNuevoMexico2       ;
 PozoPuertaSur        PozoPuertaSur        CisertaPuertaSur     HEAD     PozoPuertaSur          ;
 80                   CisertaPuertaSur     TanqueElevadoPuertaSur HEAD     1                      ;
 84                   CisternaMexicoItavu  TanqueElevadoMexicoItavu HEAD     1                      ;
 PozoAmpSanValentin   PozoAmpSanValentin   RebombeoAmpSanValentin HEAD     PozoAmpSanValentin     ;
 88                   RebombeoAmpSanValentin AmpSanValentin       HEAD     1                      ;
 PozoSanValentin      PozoSanValentin      CisternaSanValentin  HEAD     PozoSanValentin        ;
 PozoPuertaDelSol     PozoPuertaDelSol     CisternaPuertaDelSol2 HEAD     PozoPuertaDelSol       ;
 97                   CisternaPuertaDelSol2 TanqueElevadoPuertaDelSol2 HEAD     1                      ;
 98                   CisternaPuertaDelSol1 TanqueElevadoPuertaDelSol1 HEAD     1                      ;
 104                  CistermaVistaAlta    VistaAlta            HEAD     1                      ;
 PozoHcdDelSol        PozoHcdDelSol        CisternaHcdDelSol    HEAD     PozoHcdDelSol          ;
 106                  CisternaHcdDelSol    HcdDelSol            HEAD     1                      ;
 RebombeoPastorLozano3 RebombeoPastorLozano3 1                    HEAD     RebombeoPastorLozano3   ;
 RebombeoPastorLozano4 RebombeoPastorLozano4 2                    HEAD     RebombeoPastorLozano4   ;
 55                   RebombeoGranjas1     4                    HEAD     1                      ;
 56                   RebombeoGranjas2     5                    HEAD     1                      ;
 68                   RebombeoGranjas3     6                    HEAD     1                      ;
 107                  RebombeoJarachina1   7                    HEAD     1                      ;
 108                  RebombeoJarachina1   26                   HEAD     1                      ;
 Anzalduzas           Anzalduzas           3                    HEAD     Anzalduzas             ;

[VALVES]
;ID                   Node1                Node2                            Diameter Type              Setting           Minor Loss

[TAGS]
;type      name       tag       
NODE       VistaHermosa Zona      
NODE       VillaFlorida Zona      
NODE       VillasDelRoble Zona      
NODE       GranjasNorte Zona      
NODE       LomaReal   Zona      
NODE       Fresnos    Zona      
NODE       LomaBonita Zona      
NODE       Ventura    Zona      
NODE       ColinasDeLomaReal Zona      
NODE       Halcones   Zona      
NODE       Arcos      Zona      
NODE       JarachinaSur Zona      
NODE       Bugambilias Zona      
NODE       NuevoMexico Zona      
NODE       PuertaSur  Zona      
NODE       MexicoItavu Zona      
NODE       AmpSanValentin Zona      
NODE       SanValentin Zona      
NODE       PuertaDelSol Zona      
NODE       VistaAlta  Zona      
NODE       HcdDelSol  Zona      
NODE       PozoVillasDelRoble Pozo      
NODE       PozoFresnos Pozo      
NODE       PozoNuevoMexico1 Pozo      
NODE       PozoNuevoMexico2 Pozo      
NODE       PozoPuertaSur Pozo      
NODE       PozoAmpSanValentin Pozo      
NODE       PozoSanValentin Pozo      
NODE       PozoPuertaDelSol Pozo      
NODE       PozoHcdDelSol Pozo      
NODE       Anzalduzas Captacion 
NODE       RebombeoPastorLozano3 Rebombeo  
NODE       RebombeoJarachina1 Rebombeo  
NODE       RebombeoPastorLozano4 Rebombeo  
NODE       RebombeoGranjas3 Rebombeo  
NODE       RebombeoGranjas2 Rebombeo  
NODE       RebombeoGranjas1 Rebombeo  
NODE       Jarachina2 Rebombeo  
NODE       CisternaVistaHermosa Cisterna  
NODE       CisternaVillaFlorida2 Cisterna  
NODE       CisternaVillaFlorida1 Cisterna  
NODE       TanqueElevadoVistaHermosa TanqueElevado
NODE       TanqueElevadoVillaFlorida TanqueElevado
NODE       CisternaLomaReal Cisterna  
NODE       CisternaFresnos Cisterna  
NODE       CisternaLomaBonita Cisterna  
NODE       TanqueElevadoLomaBonita TanqueElevado
NODE       CisternaVentura Cisterna  
NODE       CisternaColinasDeLomaReal Cisterna  
NODE       TanqueElevadoColinasDeLomaReal TanqueElevado
NODE       TanqueElevadoBugambilias1 TanqueElevado
NODE       CisternaBugambilias1 Cisterna  
NODE       CisternaBugambilias2 Cisterna  
NODE       TanqueElevadoBugambilias2 TanqueElevado
NODE       CisternaBugambilias3 Cisterna  
NODE       TanqueElevadoBugambilias3 TanqueElevado
NODE       CisternaHalcones Cisterna  
NODE       RebombeoNuevoMexico Rebombeo  
NODE       CisertaPuertaSur Cisterna  
NODE       TanqueElevadoPuertaSur TanqueElevado
NODE       CisternaMexicoItavu Cisterna  
NODE       TanqueElevadoMexicoItavu TanqueElevado
NODE       RebombeoAmpSanValentin Rebombeo  
NODE       CisternaSanValentin Cisterna  
NODE       CisternaPuertaDelSol2 Cisterna  
NODE       CisternaPuertaDelSol1 Cisterna  
NODE       TanqueElevadoPuertaDelSol1 TanqueElevado
NODE       TanqueElevadoPuertaDelSol2 TanqueElevado
NODE       CistermaVistaAlta Cisterma  
NODE       CisternaHcdDelSol Cisterna  
LINK       10         Cisterna  